Circuit: * C:\Users\kelliott\Dropbox\Projects\OpenADR\Nav\Simulation\Charger.asc

V5: Removing PWL point (0.9,3.2)
V5: Removing PWL point (1.9,3.69)
V4: Removing PWL point (0.9,3.2)
V3: Removing PWL point (1,3.2)
V3: Removing PWL point (1.8,3.69)
V2: Removing PWL point (0.9,3.2)
V2: Removing PWL point (1.9,3.69)
Direct Newton iteration failed to find .op point.  (Use ".option noopiter" to skip.)
Starting Gmin stepping
Gmin = 10
vernier = 0.5
vernier = 0.25
vernier = 0.125
vernier = 0.0625
Gmin = 8.36601
vernier = 0.03125
vernier = 0.015625
vernier = 0.0078125
vernier = 0.00390625
Gmin = 8.28498
vernier = 0.00195313
vernier = 0.000976563
vernier = 0.000488281
Gmin = 0
Gmin = 0
Gmin stepping failed

Starting source stepping with srcstepmethod=0
Source Step = 3.0303%
vernier = 0.25
Source Step = 1.70455%
Source Step = 3.59848%
Source Step = 5.49242%
Source Step = 7.38636%
Source Step = 9.2803%
vernier = 0.09375
Source Step = 11.9318%
Source Step = 14.7727%
Source Step = 17.6136%
Source Step = 20.4545%
Source Step = 23.2955%
vernier = 0.140625
Source Step = 27.1307%
Source Step = 31.392%
Source Step = 35.6534%
Source Step = 39.9148%
Source Step = 44.1761%
vernier = 0.210938
Source Step = 49.7159%
Source Step = 56.108%
Source Step = 62.5%
Source Step = 68.892%
Source Step = 75.2841%
vernier = 0.316406
Source Step = 83.2741%
Source Step = 92.8622%
Source stepping succeeded in finding the operating point.


Date: Fri Jul 01 12:26:58 2016
Total elapsed time: 0.628 seconds.

tnom = 27
temp = 27
method = modified trap
totiter = 4847
traniter = 2210
tranpoints = 1095
accept = 1095
rejected = 0
matrix size = 83
fillins = 130
solver = Normal
Thread vector: 18.6/13.4[2] 9.3/5.7[2] 6.9/5.0[2] 0.8/17.4[1]  2592/500
Matrix Compiler1: 16.04 KB object code size  4.9/1.9/[1.5]
Matrix Compiler2: 10.38 KB object code size  2.1/1.9/[1.0]


